<?xml version="1.0" encoding="UTF-8"?>

<!-- generated on 2023-03-22 17:05:27 by Eclipse SUMO netedit Version 1.9.2-->

<routes>
      

   <!-- shortened routes -->  
    <route edges="266507545 266507540 27392720  27392724 266507546 266507536" color="yellow" id="route_highway_0"/>

   	<vehicle id="car_hl0_1" type="car_hl" route="route_highway_0" depart="4.6" departLane="0" departSpeed="max" color="red"/>  
   	<vehicle id="car_hl0_2" type="car_hl" route="route_highway_0" depart="5.8" departLane="0" departSpeed="max" color="red"/>  
 	<vehicle id="car_hl0_3" type="car_hl" route="route_highway_0" depart="8.6" departLane="0" departSpeed="max" color="red"/>     
 	<vehicle id="car_hl0_4" type="car_hl" route="route_highway_0" depart="9.6" departLane="0" departSpeed="max" color="red"/>     
 	<vehicle id="car_hl0_5" type="car_hl" route="route_highway_0" depart="12.5" departLane="0" departSpeed="max" color="red"/>      
 	<vehicle id="car_hl0_6" type="car_hl" route="route_highway_0" depart="13.5" departLane="0" departSpeed="max" color="red"/>     
 	<!-- <vehicle id="car_hl0_7" type="car_hl" route="route_highway_0" depart="16.5" departLane="0" departSpeed="max" color="red"/>       -->
 	<!-- <vehicle id="car_hl0_8" type="car_hl" route="route_highway_0" depart="17.5" departLane="0" departSpeed="max" color="red"/>    -->
 	<!--<vehicle id="car_hl0_9" type="car_hl" route="route_highway_0" depart="20.5" departLane="0" departSpeed="max" color="red"/>      
 	<vehicle id="car_hl0_10" type="car_hl" route="route_highway_0" depart="21.8" departLane="0" departSpeed="max" color="red"/>   -->
</routes>
