<?xml version="1.0" encoding="UTF-8"?>

<!-- generated on 2023-03-22 17:05:27 by Eclipse SUMO netedit Version 1.9.2-->
<routes>
    <route edges="266507545 266507540 27392720 27392724 266507546" color="yellow" id="route_highway_2"/>

   	
   	<vehicle id="car_hl2_1" type="car_hl" route="route_highway_2" depart="1.6" departLane="2" departSpeed="max" color="red"/>  
   	<vehicle id="car_hl2_2" type="car_hl" route="route_highway_2" depart="3.2" departLane="2" departSpeed="max" color="red"/>  
   	<vehicle id="car_hl2_3" type="car_hl" route="route_highway_2" depart="5.6" departLane="2" departSpeed="max" color="red"/>  
   	<vehicle id="car_hl2_4" type="car_hl" route="route_highway_2" depart="7.0" departLane="2" departSpeed="max" color="red"/>  
   	<vehicle id="car_hl2_5" type="car_hl" route="route_highway_2" depart="9.8" departLane="2" departSpeed="max" color="red"/>  
   	<vehicle id="car_hl2_6" type="car_hl" route="route_highway_2" depart="10.6" departLane="2" departSpeed="max" color="red"/>  
   	<!-- <vehicle id="car_hl2_7" type="car_hl" route="route_highway_2" depart="13.6" departLane="2" departSpeed="max" color="red"/>  
   	<vehicle id="car_hl2_8" type="car_hl" route="route_highway_2" depart="15.0" departLane="2" departSpeed="max" color="red"/>   -->
   	<!-- <vehicle id="car_hl2_9" type="car_hl" route="route_highway_2" depart="17.6" departLane="2" departSpeed="max" color="red"/>  
   	<vehicle id="car_hl2_10" type="car_hl" route="route_highway_2" depart="18.8" departLane="2" departSpeed="max" color="red"/>   -->
</routes>
