<?xml version="1.0" encoding="UTF-8"?>

<!-- generated on 2023-03-22 17:05:27 by Eclipse SUMO netedit Version 1.9.2-->

<routes>

   <!-- shortened routes -->  
    <route edges="39704924 39704922 266507540 27392720 27392724 266507546" color="green" id="route_merging_1"/>

   	
   	<vehicle id="car_ml1_1" type="car_ml" route="route_merging_1" depart="4.0" departLane="1" departSpeed="20.00" />  
   	<vehicle id="car_ml1_2" type="car_ml" route="route_merging_1" depart="8.2" departLane="1" departSpeed="20.00" />  
     	<vehicle id="car_ml1_3" type="car_ml" route="route_merging_1" depart="12.2" departLane="1" departSpeed="20.00" />  
     	<!-- <vehicle id="car_ml1_4" type="car_ml" route="route_merging_1" depart="16.2" departLane="1" departSpeed="20.00" />   -->
     	<!-- <vehicle id="car_ml1_5" type="car_ml" route="route_merging_1" depart="20.2" departLane="1" departSpeed="20.00" />  -->
</routes>
