<?xml version="1.0" encoding="UTF-8"?>

<!-- generated on 2023-03-22 17:05:27 by Eclipse SUMO netedit Version 1.9.2-->

<routes>
      

   <!-- shortened routes -->  
    <route edges="266507546" color="yellow" id="route_highway_0_2"/>

   	<vehicle id="car_hl0_1_2" type="car_hl" route="route_highway_0_2" depart="0.0" departLane="0" departSpeed="max" color="red"/>  
   	<vehicle id="car_hl0_2_2" type="car_hl" route="route_highway_0_2" depart="1.0" departLane="0" departSpeed="max" color="red"/>  
 	<vehicle id="car_hl0_3_2" type="car_hl" route="route_highway_0_2" depart="2.0" departLane="0" departSpeed="max" color="red"/>     
 	<vehicle id="car_hl0_4_2" type="car_hl" route="route_highway_0_2" depart="3.0" departLane="0" departSpeed="max" color="red"/>     
 	<vehicle id="car_hl0_5_2" type="car_hl" route="route_highway_0_2" depart="4.0" departLane="0" departSpeed="max" color="red"/>      
 	<vehicle id="car_hl0_6_2" type="car_hl" route="route_highway_0_2" depart="5.0" departLane="0" departSpeed="max" color="red"/>      
   	<vehicle id="car_hl0_7_2" type="car_hl" route="route_highway_0_2" depart="6.0" departLane="0" departSpeed="max" color="red"/>  
   	<vehicle id="car_hl0_8_2" type="car_hl" route="route_highway_0_2" depart="7.0" departLane="0" departSpeed="max" color="red"/>  
 	<vehicle id="car_hl0_9_2" type="car_hl" route="route_highway_0_2" depart="8.0" departLane="0" departSpeed="max" color="red"/>     
 	<vehicle id="car_hl0_10_2" type="car_hl" route="route_highway_0_2" depart="9.0" departLane="0" departSpeed="max" color="red"/>     
 	<vehicle id="car_hl0_11_2" type="car_hl" route="route_highway_0_2" depart="10.0" departLane="0" departSpeed="max" color="red"/>      
 	<vehicle id="car_hl0_12_2" type="car_hl" route="route_highway_0_2" depart="11.0" departLane="0" departSpeed="max" color="red"/>      
   	<vehicle id="car_hl0_13_2" type="car_hl" route="route_highway_0_2" depart="12.0" departLane="0" departSpeed="max" color="red"/>  
   	<vehicle id="car_hl0_14_2" type="car_hl" route="route_highway_0_2" depart="13.0" departLane="0" departSpeed="max" color="red"/>  
 	<vehicle id="car_hl0_15_2" type="car_hl" route="route_highway_0_2" depart="14.0" departLane="0" departSpeed="max" color="red"/>     
 	<vehicle id="car_hl0_16_2" type="car_hl" route="route_highway_0_2" depart="15.0" departLane="0" departSpeed="max" color="red"/>     
 	<vehicle id="car_hl0_17_2" type="car_hl" route="route_highway_0_2" depart="16.0" departLane="0" departSpeed="max" color="red"/>      
 	<vehicle id="car_hl0_18_2" type="car_hl" route="route_highway_0_2" depart="17.0" departLane="0" departSpeed="max" color="red"/>      
   	<vehicle id="car_hl0_19_2" type="car_hl" route="route_highway_0_2" depart="18.0" departLane="0" departSpeed="max" color="red"/>  
   	<vehicle id="car_hl0_20_2" type="car_hl" route="route_highway_0_2" depart="19.0" departLane="0" departSpeed="max" color="red"/>  
 	<vehicle id="car_hl0_21_2" type="car_hl" route="route_highway_0_2" depart="20.0" departLane="0" departSpeed="max" color="red"/>     
 	<vehicle id="car_hl0_22_2" type="car_hl" route="route_highway_0_2" depart="21.0" departLane="0" departSpeed="max" color="red"/>     
 	<vehicle id="car_hl0_23_2" type="car_hl" route="route_highway_0_2" depart="22.0" departLane="0" departSpeed="max" color="red"/>      
 	<vehicle id="car_hl0_24_2" type="car_hl" route="route_highway_0_2" depart="23.0" departLane="0" departSpeed="max" color="red"/>     
   	<vehicle id="car_hl0_25_2" type="car_hl" route="route_highway_0_2" depart="24.0" departLane="0" departSpeed="max" color="red"/>  
   	<vehicle id="car_hl0_26_2" type="car_hl" route="route_highway_0_2" depart="25.0" departLane="0" departSpeed="max" color="red"/>  
 	<vehicle id="car_hl0_27_2" type="car_hl" route="route_highway_0_2" depart="26.0" departLane="0" departSpeed="max" color="red"/>     
 	<vehicle id="car_hl0_28_2" type="car_hl" route="route_highway_0_2" depart="27.0" departLane="0" departSpeed="max" color="red"/>     
 	<vehicle id="car_hl0_29_2" type="car_hl" route="route_highway_0_2" depart="28.0" departLane="0" departSpeed="max" color="red"/>      
 	<vehicle id="car_hl0_30_2" type="car_hl" route="route_highway_0_2" depart="29.0" departLane="0" departSpeed="max" color="red"/>     
</routes>
