<?xml version="1.0" encoding="UTF-8"?>

<!-- generated on 2023-03-22 17:05:27 by Eclipse SUMO netedit Version 1.9.2-->

<routes>
      

   <!-- shortened routes -->  
    <route edges="266507541 266507544 266507534" color="yellow" id="other_route_highway_2"/>

   	<vehicle id="car_other_hl2_1" type="car_hl" route="other_route_highway_2" depart="0.0" departLane="2" departSpeed="max" color="red"/>  
   	<vehicle id="car_other_hl2_2" type="car_hl" route="other_route_highway_2" depart="1.0" departLane="2" departSpeed="max" color="red"/>  
 	<vehicle id="car_other_hl2_3" type="car_hl" route="other_route_highway_2" depart="2.0" departLane="2" departSpeed="max" color="red"/>     
 	<vehicle id="car_other_hl2_4" type="car_hl" route="other_route_highway_2" depart="3.0" departLane="2" departSpeed="max" color="red"/>     
 	<vehicle id="car_other_hl2_5" type="car_hl" route="other_route_highway_2" depart="4.0" departLane="2" departSpeed="max" color="red"/>      
 	<vehicle id="car_other_hl2_6" type="car_hl" route="other_route_highway_2" depart="5.0" departLane="2" departSpeed="max" color="red"/>      
   	<vehicle id="car_other_hl2_7" type="car_hl" route="other_route_highway_2" depart="6.0" departLane="2" departSpeed="max" color="red"/>  
   	<vehicle id="car_other_hl2_8" type="car_hl" route="other_route_highway_2" depart="7.0" departLane="2" departSpeed="max" color="red"/>  
 	<vehicle id="car_other_hl2_9" type="car_hl" route="other_route_highway_2" depart="8.0" departLane="2" departSpeed="max" color="red"/>     
 	<vehicle id="car_other_hl2_10" type="car_hl" route="other_route_highway_2" depart="9.0" departLane="2" departSpeed="max" color="red"/>     
 	<vehicle id="car_other_hl2_11" type="car_hl" route="other_route_highway_2" depart="10.0" departLane="2" departSpeed="max" color="red"/>      
 	<vehicle id="car_other_hl2_12" type="car_hl" route="other_route_highway_2" depart="11.0" departLane="2" departSpeed="max" color="red"/>      
   	<vehicle id="car_other_hl2_13" type="car_hl" route="other_route_highway_2" depart="12.0" departLane="2" departSpeed="max" color="red"/>  
   	<vehicle id="car_other_hl2_14" type="car_hl" route="other_route_highway_2" depart="13.0" departLane="2" departSpeed="max" color="red"/>  
 	<vehicle id="car_other_hl2_15" type="car_hl" route="other_route_highway_2" depart="14.0" departLane="2" departSpeed="max" color="red"/>     
 	<vehicle id="car_other_hl2_16" type="car_hl" route="other_route_highway_2" depart="15.0" departLane="2" departSpeed="max" color="red"/>     
 	<vehicle id="car_other_hl2_17" type="car_hl" route="other_route_highway_2" depart="16.0" departLane="2" departSpeed="max" color="red"/>      
 	<vehicle id="car_other_hl2_18" type="car_hl" route="other_route_highway_2" depart="17.0" departLane="2" departSpeed="max" color="red"/>      
   	<vehicle id="car_other_hl2_19" type="car_hl" route="other_route_highway_2" depart="18.0" departLane="2" departSpeed="max" color="red"/>  
   	<vehicle id="car_other_hl2_20" type="car_hl" route="other_route_highway_2" depart="19.0" departLane="2" departSpeed="max" color="red"/>  
 	<vehicle id="car_other_hl2_21" type="car_hl" route="other_route_highway_2" depart="20.0" departLane="2" departSpeed="max" color="red"/>     
 	<vehicle id="car_other_hl2_22" type="car_hl" route="other_route_highway_2" depart="21.0" departLane="2" departSpeed="max" color="red"/>     
 	<vehicle id="car_other_hl2_23" type="car_hl" route="other_route_highway_2" depart="22.0" departLane="2" departSpeed="max" color="red"/>      
 	<vehicle id="car_other_hl2_24" type="car_hl" route="other_route_highway_2" depart="23.0" departLane="2" departSpeed="max" color="red"/>     
   	<vehicle id="car_other_hl2_25" type="car_hl" route="other_route_highway_2" depart="24.0" departLane="2" departSpeed="max" color="red"/>  
   	<vehicle id="car_other_hl2_26" type="car_hl" route="other_route_highway_2" depart="25.0" departLane="2" departSpeed="max" color="red"/>  
 	<vehicle id="car_other_hl2_27" type="car_hl" route="other_route_highway_2" depart="26.0" departLane="2" departSpeed="max" color="red"/>     
 	<vehicle id="car_other_hl2_28" type="car_hl" route="other_route_highway_2" depart="27.0" departLane="2" departSpeed="max" color="red"/>     
 	<vehicle id="car_other_hl2_29" type="car_hl" route="other_route_highway_2" depart="28.0" departLane="2" departSpeed="max" color="red"/>      
 	<vehicle id="car_other_hl2_30" type="car_hl" route="other_route_highway_2" depart="29.0" departLane="2" departSpeed="max" color="red"/>       
</routes>
