<?xml version="1.0" encoding="UTF-8"?>

<!-- generated on 2023-03-22 17:05:27 by Eclipse SUMO netedit Version 1.9.2-->

<routes>
      

   <!-- shortened routes -->  

        <route edges="266507538 266507539 27392718" color="yellow" id="other_2_route_highway_0"/>

   	<vehicle id="car_2_other_hl0_1" type="car_hl" route="other_2_route_highway_0" depart="0.0" departLane="0" departSpeed="max" color="red"/>  
   	<vehicle id="car_2_other_hl0_2" type="car_hl" route="other_2_route_highway_0" depart="1.0" departLane="0" departSpeed="max" color="red"/>  
 	<vehicle id="car_2_other_hl0_3" type="car_hl" route="other_2_route_highway_0" depart="2.0" departLane="0" departSpeed="max" color="red"/>     
 	<vehicle id="car_2_other_hl0_4" type="car_hl" route="other_2_route_highway_0" depart="3.0" departLane="0" departSpeed="max" color="red"/>     
 	<vehicle id="car_2_other_hl0_5" type="car_hl" route="other_2_route_highway_0" depart="4.0" departLane="0" departSpeed="max" color="red"/>      
 	<vehicle id="car_2_other_hl0_6" type="car_hl" route="other_2_route_highway_0" depart="5.0" departLane="0" departSpeed="max" color="red"/>      
   	<vehicle id="car_2_other_hl0_7" type="car_hl" route="other_2_route_highway_0" depart="6.0" departLane="0" departSpeed="max" color="red"/>  
   	<vehicle id="car_2_other_hl0_8" type="car_hl" route="other_2_route_highway_0" depart="7.0" departLane="0" departSpeed="max" color="red"/>  
 	<vehicle id="car_2_other_hl0_9" type="car_hl" route="other_2_route_highway_0" depart="8.0" departLane="0" departSpeed="max" color="red"/>     
 	<vehicle id="car_2_other_hl0_10" type="car_hl" route="other_2_route_highway_0" depart="9.0" departLane="0" departSpeed="max" color="red"/>     
 	<vehicle id="car_2_other_hl0_11" type="car_hl" route="other_2_route_highway_0" depart="10.0" departLane="0" departSpeed="max" color="red"/>      
 	<vehicle id="car_2_other_hl0_12" type="car_hl" route="other_2_route_highway_0" depart="11.0" departLane="0" departSpeed="max" color="red"/>      
   	<vehicle id="car_2_other_hl0_13" type="car_hl" route="other_2_route_highway_0" depart="12.0" departLane="0" departSpeed="max" color="red"/>  
   	<vehicle id="car_2_other_hl0_14" type="car_hl" route="other_2_route_highway_0" depart="13.0" departLane="0" departSpeed="max" color="red"/>  
 	<vehicle id="car_2_other_hl0_15" type="car_hl" route="other_2_route_highway_0" depart="14.0" departLane="0" departSpeed="max" color="red"/>     
 	<vehicle id="car_2_other_hl0_16" type="car_hl" route="other_2_route_highway_0" depart="15.0" departLane="0" departSpeed="max" color="red"/>     
 	<vehicle id="car_2_other_hl0_17" type="car_hl" route="other_2_route_highway_0" depart="16.0" departLane="0" departSpeed="max" color="red"/>      
 	<vehicle id="car_2_other_hl0_18" type="car_hl" route="other_2_route_highway_0" depart="17.0" departLane="0" departSpeed="max" color="red"/>      
   	<vehicle id="car_2_other_hl0_19" type="car_hl" route="other_2_route_highway_0" depart="18.0" departLane="0" departSpeed="max" color="red"/>  
   	<vehicle id="car_2_other_hl0_20" type="car_hl" route="other_2_route_highway_0" depart="19.0" departLane="0" departSpeed="max" color="red"/>  
 	<vehicle id="car_2_other_hl0_21" type="car_hl" route="other_2_route_highway_0" depart="20.0" departLane="0" departSpeed="max" color="red"/>     
 	<vehicle id="car_2_other_hl0_22" type="car_hl" route="other_2_route_highway_0" depart="21.0" departLane="0" departSpeed="max" color="red"/>     
 	<vehicle id="car_2_other_hl0_23" type="car_hl" route="other_2_route_highway_0" depart="22.0" departLane="0" departSpeed="max" color="red"/>      
 	<vehicle id="car_2_other_hl0_24" type="car_hl" route="other_2_route_highway_0" depart="23.0" departLane="0" departSpeed="max" color="red"/>     
   	<vehicle id="car_2_other_hl0_25" type="car_hl" route="other_2_route_highway_0" depart="24.0" departLane="0" departSpeed="max" color="red"/>  
   	<vehicle id="car_2_other_hl0_26" type="car_hl" route="other_2_route_highway_0" depart="25.0" departLane="0" departSpeed="max" color="red"/>  
 	<vehicle id="car_2_other_hl0_27" type="car_hl" route="other_2_route_highway_0" depart="26.0" departLane="0" departSpeed="max" color="red"/>     
 	<vehicle id="car_2_other_hl0_28" type="car_hl" route="other_2_route_highway_0" depart="27.0" departLane="0" departSpeed="max" color="red"/>     
 	<vehicle id="car_2_other_hl0_29" type="car_hl" route="other_2_route_highway_0" depart="28.0" departLane="0" departSpeed="max" color="red"/>      
 	<vehicle id="car_2_other_hl0_30" type="car_hl" route="other_2_route_highway_0" depart="29.0" departLane="0" departSpeed="max" color="red"/>      
</routes>
