<?xml version="1.0" encoding="UTF-8"?>

<!-- generated on 2023-03-22 17:05:27 by Eclipse SUMO netedit Version 1.9.2-->

<routes>
      

   <!-- shortened routes -->  
    <route edges="266507545 266507540 27392720  27392724 266507546 266507536" color="yellow" id="route_highway_0_flow"/>

   <flow id="lane_change_0" color="1,1,0"  begin="5" end= "50" vehsPerHour="2000" type="car_hl" route="route_highway_0_flow" departSpeed="27.0" departLane="0">
  	   
  	   </flow>   	
</routes>
