<?xml version="1.0" encoding="UTF-8"?>

<!-- generated on 2024-01-11 18:18:59 by Eclipse SUMO netedit Version 1.19.0
<configuration xmlns:xsi="http://www.w3.org/2001/XMLSchema-instance" xsi:noNamespaceSchemaLocation="http://sumo.dlr.de/xsd/neteditConfiguration.xsd">

    <input>
        <sumo-net-file value="/home/maksimovski/Desktop/artery/scenarios/artery-priority-planner/new_map.net.xml"/>
    </input>

    <output>
        <output-file value="/home/maksimovski/Desktop/artery/scenarios/artery-priority-planner/new_map.net.xml"/>
    </output>

    <processing>
        <geometry.min-radius.fix.railways value="false"/>
        <geometry.max-grade.fix value="false"/>
        <offset.disable-normalization value="true"/>
        <lefthand value="0"/>
    </processing>

    <junctions>
        <no-turnarounds value="true"/>
        <junctions.corner-detail value="5"/>
        <junctions.limit-turn-speed value="5.50"/>
        <rectangular-lane-cut value="0"/>
    </junctions>

    <pedestrian>
        <walkingareas value="0"/>
    </pedestrian>

</configuration>
-->

<net version="1.16" junctionCornerDetail="5" limitTurnSpeed="5.50" xmlns:xsi="http://www.w3.org/2001/XMLSchema-instance" xsi:noNamespaceSchemaLocation="http://sumo.dlr.de/xsd/net_file.xsd">

    <location netOffset="-464198.88,-4952821.58" convBoundary="216096.95,451376.33,217543.09,453992.60" origBoundary="8.520516,43.618350,29.768112,49.031374" projParameter="+proj=utm +zone=32 +ellps=WGS84 +datum=WGS84 +units=m +no_defs"/>

    <type id="highway.motorway" priority="13" numLanes="2" speed="44.44" allow="private emergency authority army vip passenger hov taxi bus coach delivery truck trailer motorcycle evehicle custom1 custom2" oneway="1"/>
    <type id="highway.motorway_link" priority="12" numLanes="1" speed="22.22" allow="private emergency authority army vip passenger hov taxi bus coach delivery truck trailer motorcycle evehicle custom1 custom2" oneway="1"/>
    <type id="highway.primary" priority="9" numLanes="2" speed="27.78" disallow="tram rail_urban rail rail_electric ship" oneway="1"/>
    <type id="highway.primary_link" priority="8" numLanes="1" speed="22.22" disallow="tram rail_urban rail rail_electric ship" oneway="1"/>
    <type id="highway.residential" priority="4" numLanes="1" speed="13.89" disallow="tram rail_urban rail rail_electric ship" oneway="1"/>
    <type id="highway.secondary" priority="7" numLanes="2" speed="27.78" disallow="tram rail_urban rail rail_electric ship" oneway="1"/>
    <type id="highway.secondary_link" priority="6" numLanes="1" speed="22.22" disallow="tram rail_urban rail rail_electric ship" oneway="1"/>
    <type id="highway.service" priority="2" numLanes="1" speed="5.56" allow="pedestrian delivery bicycle" oneway="1"/>
    <type id="highway.tertiary" priority="6" numLanes="1" speed="22.22" disallow="tram rail_urban rail rail_electric ship" oneway="1"/>
    <type id="highway.track" priority="1" numLanes="1" speed="5.56" disallow="tram rail_urban rail rail_electric ship" oneway="1"/>
    <type id="highway.trunk" priority="11" numLanes="2" speed="27.78" disallow="pedestrian bicycle tram rail_urban rail rail_electric ship" oneway="1"/>
    <type id="highway.trunk_link" priority="10" numLanes="1" speed="22.22" disallow="pedestrian bicycle tram rail_urban rail rail_electric ship" oneway="1"/>
    <type id="highway.unclassified" priority="5" numLanes="1" speed="13.89" disallow="tram rail_urban rail rail_electric ship" oneway="1"/>

    <edge id=":13876324_0" function="internal">
        <lane id=":13876324_0_0" index="0" disallow="pedestrian tram rail_urban rail rail_electric rail_fast ship" speed="19.45" length="0.30" shape="216706.22,452264.31 216705.93,452264.28"/>
        <lane id=":13876324_0_1" index="1" disallow="pedestrian tram rail_urban rail rail_electric rail_fast ship" speed="19.45" length="0.30" shape="216706.48,452261.12 216706.17,452261.09"/>
    </edge>
    <edge id=":139542_0" function="internal">
        <lane id=":139542_0_0" index="0" disallow="pedestrian tram rail_urban rail rail_electric rail_fast ship" speed="27.19" length="6.20" shape="216613.85,451937.41 216614.08,451939.22 216614.42,451940.43 216614.94,451941.59 216615.69,451943.28"/>
    </edge>
    <edge id=":139542_1" function="internal">
        <lane id=":139542_1_0" index="0" disallow="pedestrian tram rail_urban rail rail_electric rail_fast ship" speed="83.33" length="6.48" shape="216610.66,451937.67 216610.98,451939.59 216611.43,451940.87 216611.86,451942.15 216612.11,451944.07"/>
        <lane id=":139542_1_1" index="1" disallow="pedestrian tram rail_urban rail rail_electric rail_fast ship" speed="83.33" length="6.48" shape="216607.47,451937.94 216607.79,451939.82 216608.23,451941.08 216608.66,451942.34 216608.92,451944.23"/>
        <lane id=":139542_1_2" index="2" disallow="pedestrian tram rail_urban rail rail_electric rail_fast ship" speed="83.33" length="6.48" shape="216604.28,451938.20 216604.59,451940.05 216605.04,451941.29 216605.47,451942.52 216605.72,451944.38"/>
    </edge>
    <edge id=":139543_0" function="internal">
        <lane id=":139543_0_0" index="0" disallow="pedestrian tram rail_urban rail rail_electric rail_fast ship" speed="83.33" length="0.30" shape="216625.88,452285.46 216625.88,452285.79"/>
        <lane id=":139543_0_1" index="1" disallow="pedestrian tram rail_urban rail rail_electric rail_fast ship" speed="83.33" length="0.30" shape="216622.68,452285.49 216622.68,452285.80"/>
        <lane id=":139543_0_2" index="2" disallow="pedestrian tram rail_urban rail rail_electric rail_fast ship" speed="83.33" length="0.30" shape="216619.48,452285.52 216619.48,452285.80"/>
        <lane id=":139543_0_3" index="3" disallow="pedestrian tram rail_urban rail rail_electric rail_fast ship" speed="83.33" length="0.30" shape="216616.28,452285.54 216616.28,452285.80"/>
    </edge>
    <edge id=":139544_0" function="internal">
        <lane id=":139544_0_0" index="0" disallow="pedestrian tram rail_urban rail rail_electric rail_fast ship" speed="14.08" length="6.16" shape="216620.18,452561.10 216619.24,452562.68 216618.60,452563.78 216618.19,452564.96 216617.96,452566.74"/>
    </edge>
    <edge id=":139544_1" function="internal">
        <lane id=":139544_1_0" index="0" disallow="pedestrian tram rail_urban rail rail_electric rail_fast ship" speed="83.33" length="6.69" shape="216616.53,452560.06 216616.22,452562.01 216615.67,452563.30 216615.12,452564.58 216614.77,452566.52"/>
        <lane id=":139544_1_1" index="1" disallow="pedestrian tram rail_urban rail rail_electric rail_fast ship" speed="83.33" length="6.69" shape="216613.33,452559.91 216613.02,452561.84 216612.48,452563.11 216611.92,452564.38 216611.58,452566.31"/>
        <lane id=":139544_1_2" index="2" disallow="pedestrian tram rail_urban rail rail_electric rail_fast ship" speed="83.33" length="6.69" shape="216610.14,452559.75 216609.83,452561.66 216609.28,452562.92 216608.73,452564.18 216608.38,452566.09"/>
    </edge>
    <edge id=":139545_0" function="internal">
        <lane id=":139545_0_0" index="0" disallow="pedestrian tram rail_urban rail rail_electric rail_fast ship" speed="52.77" length="8.40" shape="216590.20,452581.45 216590.09,452579.00 216589.57,452577.35 216589.02,452575.69 216588.80,452573.24"/>
    </edge>
    <edge id=":139545_1" function="internal">
        <lane id=":139545_1_0" index="0" disallow="pedestrian tram rail_urban rail rail_electric rail_fast ship" speed="83.33" length="8.94" shape="216593.40,452581.67 216593.31,452579.06 216592.82,452577.28 216592.34,452575.51 216592.22,452572.89"/>
        <lane id=":139545_1_1" index="1" disallow="pedestrian tram rail_urban rail rail_electric rail_fast ship" speed="83.33" length="8.94" shape="216596.59,452581.90 216596.50,452579.27 216596.02,452577.49 216595.53,452575.71 216595.42,452573.09"/>
        <lane id=":139545_1_2" index="2" disallow="pedestrian tram rail_urban rail rail_electric rail_fast ship" speed="83.33" length="8.94" shape="216599.78,452582.12 216599.69,452579.49 216599.21,452577.70 216598.72,452575.91 216598.61,452573.28"/>
    </edge>
    <edge id=":139546_0" function="internal">
        <lane id=":139546_0_0" index="0" disallow="pedestrian tram rail_urban rail rail_electric rail_fast ship" speed="83.33" length="0.32" shape="216599.17,452294.24 216599.17,452294.02"/>
        <lane id=":139546_0_1" index="1" disallow="pedestrian tram rail_urban rail rail_electric rail_fast ship" speed="83.33" length="0.32" shape="216602.37,452294.28 216602.37,452294.00"/>
        <lane id=":139546_0_2" index="2" disallow="pedestrian tram rail_urban rail rail_electric rail_fast ship" speed="83.33" length="0.32" shape="216605.57,452294.32 216605.57,452293.97"/>
        <lane id=":139546_0_3" index="3" disallow="pedestrian tram rail_urban rail rail_electric rail_fast ship" speed="83.33" length="0.32" shape="216608.77,452294.36 216608.77,452293.94"/>
    </edge>
    <edge id=":139547_0" function="internal">
        <lane id=":139547_0_0" index="0" disallow="pedestrian tram rail_urban rail rail_electric rail_fast ship" speed="83.33" length="0.30" shape="216575.64,451820.08 216575.61,451819.74"/>
        <lane id=":139547_0_1" index="1" disallow="pedestrian tram rail_urban rail rail_electric rail_fast ship" speed="83.33" length="0.30" shape="216578.82,451819.74 216578.79,451819.43"/>
        <lane id=":139547_0_2" index="2" disallow="pedestrian tram rail_urban rail rail_electric rail_fast ship" speed="83.33" length="0.30" shape="216582.01,451819.40 216581.98,451819.12"/>
        <lane id=":139547_0_3" index="3" disallow="pedestrian tram rail_urban rail rail_electric rail_fast ship" speed="83.33" length="0.30" shape="216585.19,451819.05 216585.16,451818.81"/>
    </edge>
    <edge id=":1516302022_0" function="internal">
        <lane id=":1516302022_0_0" index="0" disallow="pedestrian tram rail_urban rail rail_electric rail_fast ship" speed="6.49" length="9.08" shape="217009.76,452334.77 217007.30,452334.35 217005.31,452334.82 217003.78,452336.18 217002.72,452338.43"/>
    </edge>
    <edge id=":1516302022_1" function="internal">
        <lane id=":1516302022_1_0" index="0" disallow="pedestrian tram rail_urban rail rail_electric rail_fast ship" speed="8.36" length="13.86" shape="217009.76,452334.77 217006.24,452333.12 217003.91,452330.83 217002.78,452327.90 217002.84,452324.33"/>
    </edge>
    <edge id=":1516302022_2" function="internal">
        <lane id=":1516302022_2_0" index="0" disallow="pedestrian tram rail_urban rail rail_electric rail_fast ship" speed="6.92" length="9.22" shape="217006.00,452324.87 217005.97,452327.19 217006.76,452329.11 217008.35,452330.62 217010.74,452331.73"/>
    </edge>
    <edge id=":1516302022_3" function="internal">
        <lane id=":1516302022_3_0" index="0" disallow="pedestrian tram rail_urban rail rail_electric rail_fast ship" speed="13.89" length="13.97" shape="217006.00,452324.87 217005.28,452328.95 217004.69,452331.73 217003.93,452334.47 217002.72,452338.43"/>
    </edge>
    <edge id=":1516302022_4" function="internal">
        <lane id=":1516302022_4_0" index="0" disallow="pedestrian tram rail_urban rail rail_electric rail_fast ship" speed="13.89" length="13.56" shape="216999.66,452337.49 217000.84,452333.64 217001.57,452330.99 217002.15,452328.29 217002.84,452324.33"/>
    </edge>
    <edge id=":1516302022_5" function="internal">
        <lane id=":1516302022_5_0" index="0" disallow="pedestrian tram rail_urban rail rail_electric rail_fast ship" speed="7.99" length="14.29" shape="216999.66,452337.49 217001.34,452333.94 217003.74,452331.80 217006.88,452331.06 217010.74,452331.73"/>
    </edge>
    <edge id=":1516302027_0" function="internal">
        <lane id=":1516302027_0_0" index="0" disallow="pedestrian tram rail_urban rail rail_electric rail_fast ship" speed="5.98" length="7.51" shape="217102.30,452363.67 217100.68,452363.53 217099.29,452364.20 217098.13,452365.67 217097.19,452367.95"/>
    </edge>
    <edge id=":1516302027_1" function="internal">
        <lane id=":1516302027_1_0" index="0" disallow="pedestrian tram rail_urban rail rail_electric rail_fast ship" speed="13.89" length="10.42" shape="217102.30,452363.67 217092.36,452360.57"/>
    </edge>
    <edge id=":1516302027_2" function="internal">
        <lane id=":1516302027_2_0" index="0" disallow="pedestrian tram rail_urban rail rail_electric rail_fast ship" speed="13.89" length="10.43" shape="217093.30,452357.51 217103.26,452360.62"/>
    </edge>
    <edge id=":1516302027_3" function="internal">
        <lane id=":1516302027_3_0" index="0" disallow="pedestrian tram rail_urban rail rail_electric rail_fast ship" speed="7.60" length="3.14" shape="217093.30,452357.51 217095.97,452358.91 217096.04,452359.01"/>
    </edge>
    <edge id=":1516302027_6" function="internal">
        <lane id=":1516302027_6_0" index="0" disallow="pedestrian tram rail_urban rail rail_electric rail_fast ship" speed="7.60" length="9.49" shape="217096.04,452359.01 217097.51,452361.12 217097.91,452364.14 217097.19,452367.95"/>
    </edge>
    <edge id=":1516302027_4" function="internal">
        <lane id=":1516302027_4_0" index="0" disallow="pedestrian tram rail_urban rail rail_electric rail_fast ship" speed="6.01" length="7.52" shape="217094.13,452367.02 217094.64,452364.60 217094.51,452362.71 217093.75,452361.37 217092.36,452360.57"/>
    </edge>
    <edge id=":1516302027_5" function="internal">
        <lane id=":1516302027_5_0" index="0" disallow="pedestrian tram rail_urban rail rail_electric rail_fast ship" speed="7.57" length="12.68" shape="217094.13,452367.02 217095.67,452363.45 217097.70,452361.19 217100.23,452360.25 217103.26,452360.62"/>
    </edge>
    <edge id=":1516302030_0" function="internal">
        <lane id=":1516302030_0_0" index="0" disallow="pedestrian tram rail_urban rail rail_electric rail_fast ship" speed="7.79" length="7.47" shape="217288.70,452393.33 217288.20,452391.06 217287.45,452389.26 217286.45,452387.92 217285.20,452387.05"/>
    </edge>
    <edge id=":1516302030_1" function="internal">
        <lane id=":1516302030_1_0" index="0" disallow="pedestrian tram rail_urban rail rail_electric rail_fast ship" speed="27.78" length="8.08" shape="217292.59,452390.38 217285.20,452387.05"/>
        <lane id=":1516302030_1_1" index="1" disallow="pedestrian tram rail_urban rail rail_electric rail_fast ship" speed="27.78" length="8.08" shape="217293.89,452387.46 217286.55,452384.15"/>
    </edge>
    <edge id=":1516302037_0" function="internal">
        <lane id=":1516302037_0_0" index="0" disallow="pedestrian tram rail_urban rail rail_electric rail_fast ship" speed="7.98" length="5.01" shape="217297.64,452404.73 217293.10,452406.86"/>
    </edge>
    <edge id=":1516302037_1" function="internal">
        <lane id=":1516302037_1_0" index="0" disallow="pedestrian tram rail_urban rail rail_electric rail_fast ship" speed="11.84" length="6.72" shape="217290.14,452405.65 217290.64,452403.81 217290.49,452402.47 217290.03,452401.09 217289.56,452399.14"/>
    </edge>
    <edge id=":1695144073_0" function="internal">
        <lane id=":1695144073_0_0" index="0" disallow="pedestrian tram rail_urban rail rail_electric rail_fast ship" speed="6.40" length="7.92" shape="217164.99,452204.55 217162.89,452204.13 217161.10,452204.43 217159.60,452205.47 217158.40,452207.24"/>
    </edge>
    <edge id=":1695144073_1" function="internal">
        <lane id=":1695144073_1_0" index="0" disallow="pedestrian tram rail_urban rail rail_electric rail_fast ship" speed="6.34" length="9.19" shape="217164.99,452204.55 217161.79,452203.20 217159.72,452201.81 217158.76,452200.37 217158.92,452198.88"/>
    </edge>
    <edge id=":1695144073_2" function="internal">
        <lane id=":1695144073_2_0" index="0" disallow="pedestrian tram rail_urban rail rail_electric rail_fast ship" speed="8.33" length="7.73" shape="217155.53,452205.83 217158.92,452198.88"/>
    </edge>
    <edge id=":1821113866_0" function="internal">
        <lane id=":1821113866_0_0" index="0" disallow="pedestrian tram rail_urban rail rail_electric rail_fast ship" speed="13.89" length="10.31" shape="216542.55,451843.34 216532.28,451842.44"/>
    </edge>
    <edge id=":1821113866_1" function="internal">
        <lane id=":1821113866_1_0" index="0" disallow="pedestrian tram rail_urban rail rail_electric rail_fast ship" speed="7.87" length="2.78" shape="216542.55,451843.34 216539.89,451842.52"/>
    </edge>
    <edge id=":1821113866_6" function="internal">
        <lane id=":1821113866_6_0" index="0" disallow="pedestrian tram rail_urban rail rail_electric rail_fast ship" speed="7.87" length="9.78" shape="216539.89,451842.52 216537.98,451840.65 216536.82,451837.75 216536.39,451833.80"/>
    </edge>
    <edge id=":1821113866_2" function="internal">
        <lane id=":1821113866_2_0" index="0" disallow="pedestrian tram rail_urban rail rail_electric rail_fast ship" speed="6.35" length="7.84" shape="216539.59,451833.76 216539.82,451836.44 216540.44,451838.40 216541.46,451839.63 216542.86,451840.15"/>
    </edge>
    <edge id=":1821113866_3" function="internal">
        <lane id=":1821113866_3_0" index="0" disallow="pedestrian tram rail_urban rail rail_electric rail_fast ship" speed="7.49" length="13.16" shape="216539.59,451833.76 216539.18,451837.77 216537.82,451840.56 216535.52,451842.11 216532.28,451842.44"/>
    </edge>
    <edge id=":1821113866_4" function="internal">
        <lane id=":1821113866_4_0" index="0" disallow="pedestrian tram rail_urban rail rail_electric rail_fast ship" speed="5.88" length="7.68" shape="216532.54,451839.25 216534.25,451839.02 216535.46,451838.04 216536.18,451836.30 216536.39,451833.80"/>
    </edge>
    <edge id=":1821113866_5" function="internal">
        <lane id=":1821113866_5_0" index="0" disallow="pedestrian tram rail_urban rail rail_electric rail_fast ship" speed="13.89" length="10.36" shape="216532.54,451839.25 216542.86,451840.15"/>
    </edge>
    <edge id=":1821113920_0" function="internal">
        <lane id=":1821113920_0_0" index="0" disallow="pedestrian tram rail_urban rail rail_electric rail_fast ship" speed="6.18" length="11.04" shape="217184.22,452110.92 217183.82,452107.65 217182.53,452105.84 217180.33,452105.48 217177.22,452106.57"/>
    </edge>
    <edge id=":2055703877_0" function="internal">
        <lane id=":2055703877_0_0" index="0" disallow="pedestrian tram rail_urban rail rail_electric rail_fast ship" speed="19.45" length="36.51" shape="216699.09,452266.98 216662.85,452262.61"/>
    </edge>
    <edge id=":2055703877_1" function="internal">
        <lane id=":2055703877_1_0" index="0" disallow="pedestrian tram rail_urban rail rail_electric rail_fast ship" speed="16.67" length="37.29" shape="216700.10,452263.84 216663.08,452259.42"/>
        <lane id=":2055703877_1_1" index="1" disallow="pedestrian tram rail_urban rail rail_electric rail_fast ship" speed="16.67" length="37.29" shape="216700.34,452260.65 216663.31,452256.23"/>
    </edge>
    <edge id=":20921035_0" function="internal">
        <lane id=":20921035_0_0" index="0" disallow="pedestrian tram rail_urban rail rail_electric rail_fast ship" speed="44.59" length="5.76" shape="216626.13,452161.39 216625.64,452163.02 216625.30,452164.16 216625.11,452165.31 216625.05,452167.01"/>
    </edge>
    <edge id=":20921035_1" function="internal">
        <lane id=":20921035_1_0" index="0" disallow="pedestrian tram rail_urban rail rail_electric rail_fast ship" speed="83.33" length="5.96" shape="216622.52,452160.98 216622.47,452162.78 216622.23,452164.00 216621.97,452165.22 216621.85,452167.02"/>
        <lane id=":20921035_1_1" index="1" disallow="pedestrian tram rail_urban rail rail_electric rail_fast ship" speed="83.33" length="5.96" shape="216619.32,452161.13 216619.28,452162.89 216619.04,452164.08 216618.77,452165.28 216618.65,452167.04"/>
        <lane id=":20921035_1_2" index="2" disallow="pedestrian tram rail_urban rail rail_electric rail_fast ship" speed="83.33" length="5.96" shape="216616.13,452161.29 216616.08,452163.00 216615.84,452164.17 216615.57,452165.34 216615.45,452167.05"/>
    </edge>
    <edge id=":20921036_0" function="internal">
        <lane id=":20921036_0_0" index="0" disallow="pedestrian tram rail_urban rail rail_electric rail_fast ship" speed="22.22" length="4.27" shape="216790.13,452222.26 216790.05,452223.52 216790.08,452224.39 216790.21,452225.25 216790.44,452226.49"/>
    </edge>
    <edge id=":20921036_1" function="internal">
        <lane id=":20921036_1_0" index="0" disallow="pedestrian tram rail_urban rail rail_electric rail_fast ship" speed="22.22" length="6.55" shape="216786.11,452228.47 216786.55,452226.58 216786.74,452225.27 216786.81,452223.93 216786.94,452221.99"/>
    </edge>
    <edge id=":2252612079_0" function="internal">
        <lane id=":2252612079_0_0" index="0" disallow="pedestrian tram rail_urban rail rail_electric rail_fast ship" speed="13.89" length="14.86" shape="217058.38,451991.32 217054.97,452005.79"/>
    </edge>
    <edge id=":2252612079_1" function="internal">
        <lane id=":2252612079_1_0" index="0" disallow="pedestrian tram rail_urban rail rail_electric rail_fast ship" speed="8.91" length="3.60" shape="217058.38,451991.32 217057.06,451994.50 217056.94,451994.61"/>
    </edge>
    <edge id=":2252612079_6" function="internal">
        <lane id=":2252612079_6_0" index="0" disallow="pedestrian tram rail_urban rail rail_electric rail_fast ship" speed="8.91" length="11.27" shape="217056.94,451994.61 217054.69,451996.78 217051.29,451998.16 217046.84,451998.62"/>
    </edge>
    <edge id=":2252612079_2" function="internal">
        <lane id=":2252612079_2_0" index="0" disallow="pedestrian tram rail_urban rail rail_electric rail_fast ship" speed="7.58" length="10.52" shape="217046.83,451995.42 217050.12,451995.12 217052.62,451994.22 217054.33,451992.72 217055.25,451990.63"/>
    </edge>
    <edge id=":2252612079_3" function="internal">
        <lane id=":2252612079_3_0" index="0" disallow="pedestrian tram rail_urban rail rail_electric rail_fast ship" speed="7.83" length="16.05" shape="217046.83,451995.42 217051.35,451996.06 217054.22,451998.00 217055.42,452001.24 217054.97,452005.79"/>
    </edge>
    <edge id=":2252612079_4" function="internal">
        <lane id=":2252612079_4_0" index="0" disallow="pedestrian tram rail_urban rail rail_electric rail_fast ship" speed="6.28" length="9.91" shape="217051.87,452005.02 217052.15,452002.22 217051.40,452000.21 217049.63,451999.02 217046.84,451998.62"/>
    </edge>
    <edge id=":2252612079_5" function="internal">
        <lane id=":2252612079_5_0" index="0" disallow="pedestrian tram rail_urban rail rail_electric rail_fast ship" speed="13.89" length="14.78" shape="217051.87,452005.02 217055.25,451990.63"/>
    </edge>
    <edge id=":2252612086_0" function="internal">
        <lane id=":2252612086_0_0" index="0" disallow="pedestrian tram rail_urban rail rail_electric rail_fast ship" speed="8.08" length="14.10" shape="216938.04,452005.65 216938.54,452001.79 216940.11,451998.98 216942.77,451997.22 216946.51,451996.51"/>
    </edge>
    <edge id=":2252612086_1" function="internal">
        <lane id=":2252612086_1_0" index="0" disallow="pedestrian tram rail_urban rail rail_electric rail_fast ship" speed="6.60" length="9.08" shape="216946.65,451999.70 216944.26,452000.17 216942.56,452001.31 216941.55,452003.12 216941.24,452005.62"/>
    </edge>
    <edge id=":2252612086_2" function="internal">
        <lane id=":2252612086_2_0" index="0" disallow="pedestrian tram rail_urban rail rail_electric rail_fast ship" speed="13.89" length="14.28" shape="216946.65,451999.70 216932.37,452000.11"/>
    </edge>
    <edge id=":2252612086_3" function="internal">
        <lane id=":2252612086_3_0" index="0" disallow="pedestrian tram rail_urban rail rail_electric rail_fast ship" speed="13.89" length="14.18" shape="216932.34,451996.91 216946.51,451996.51"/>
    </edge>
    <edge id=":2252612086_4" function="internal">
        <lane id=":2252612086_4_0" index="0" disallow="pedestrian tram rail_urban rail rail_electric rail_fast ship" speed="8.00" length="3.90" shape="216932.34,451996.91 216936.20,451997.41"/>
    </edge>
    <edge id=":2252612086_5" function="internal">
        <lane id=":2252612086_5_0" index="0" disallow="pedestrian tram rail_urban rail rail_electric rail_fast ship" speed="8.00" length="10.32" shape="216936.20,451997.41 216938.97,451999.03 216940.65,452001.77 216941.24,452005.62"/>
    </edge>
    <edge id=":2252612090_0" function="internal">
        <lane id=":2252612090_0_0" index="0" disallow="pedestrian tram rail_urban rail rail_electric rail_fast ship" speed="7.10" length="10.99" shape="216928.66,452019.97 216925.68,452019.54 216923.55,452018.27 216922.28,452016.14 216921.86,452013.15"/>
    </edge>
    <edge id=":2252612090_1" function="internal">
        <lane id=":2252612090_1_0" index="0" disallow="pedestrian tram rail_urban rail rail_electric rail_fast ship" speed="5.37" length="5.82" shape="216925.06,452013.16 216925.28,452014.74 216925.96,452015.87 216927.08,452016.54 216928.66,452016.77"/>
    </edge>
    <edge id=":2363140554_0" function="internal">
        <lane id=":2363140554_0_0" index="0" disallow="pedestrian tram rail_urban rail rail_electric rail_fast ship" speed="83.33" length="8.19" shape="216602.70,452765.13 216602.23,452767.51 216601.53,452769.06 216600.81,452770.61 216600.28,452772.99"/>
        <lane id=":2363140554_0_1" index="1" disallow="pedestrian tram rail_urban rail rail_electric rail_fast ship" speed="83.33" length="8.19" shape="216599.52,452764.84 216599.55,452767.26 216599.94,452768.92 216600.31,452770.57 216600.28,452772.99"/>
        <lane id=":2363140554_0_2" index="2" disallow="pedestrian tram rail_urban rail rail_electric rail_fast ship" speed="83.33" length="8.19" shape="216596.33,452764.54 216596.36,452766.94 216596.75,452768.59 216597.13,452770.23 216597.10,452772.62"/>
        <lane id=":2363140554_0_3" index="3" disallow="pedestrian tram rail_urban rail rail_electric rail_fast ship" speed="83.33" length="8.19" shape="216593.14,452764.25 216593.18,452766.63 216593.57,452768.26 216593.95,452769.88 216593.92,452772.25"/>
    </edge>
    <edge id=":2363152371_0" function="internal">
        <lane id=":2363152371_0_0" index="0" disallow="pedestrian tram rail_urban rail rail_electric rail_fast ship" speed="12.16" length="15.30" shape="216469.22,452456.40 216471.69,452458.34 216474.77,452459.71 216478.48,452460.49 216482.80,452460.69"/>
        <lane id=":2363152371_0_1" index="1" disallow="pedestrian tram rail_urban rail rail_electric rail_fast ship" speed="12.69" length="15.30" shape="216469.22,452456.40 216472.83,452459.72 216476.31,452462.08 216479.65,452463.47 216482.86,452463.89"/>
    </edge>
    <edge id=":2363152371_2" function="internal">
        <lane id=":2363152371_2_0" index="0" disallow="pedestrian tram rail_urban rail rail_electric rail_fast ship" speed="22.22" length="14.55" shape="216468.22,452461.33 216482.80,452460.69"/>
        <lane id=":2363152371_2_1" index="1" disallow="pedestrian tram rail_urban rail rail_electric rail_fast ship" speed="22.22" length="14.55" shape="216468.37,452464.53 216482.86,452463.89"/>
    </edge>
    <edge id=":2363164794_0" function="internal">
        <lane id=":2363164794_0_0" index="0" disallow="pedestrian tram rail_urban rail rail_electric rail_fast ship" speed="14.75" length="7.51" shape="216625.04,452344.93 216625.09,452347.11 216625.50,452348.57 216626.21,452349.97 216627.20,452351.99"/>
    </edge>
    <edge id=":2363164794_1" function="internal">
        <lane id=":2363164794_1_0" index="0" disallow="pedestrian tram rail_urban rail rail_electric rail_fast ship" speed="83.33" length="8.26" shape="216621.84,452344.78 216622.03,452347.16 216622.63,452348.75 216623.25,452350.34 216623.50,452352.72"/>
        <lane id=":2363164794_1_1" index="1" disallow="pedestrian tram rail_urban rail rail_electric rail_fast ship" speed="83.33" length="8.26" shape="216618.64,452344.63 216618.83,452347.04 216619.43,452348.64 216620.05,452350.25 216620.30,452352.65"/>
        <lane id=":2363164794_1_2" index="2" disallow="pedestrian tram rail_urban rail rail_electric rail_fast ship" speed="83.33" length="8.26" shape="216615.45,452344.49 216615.63,452346.91 216616.23,452348.54 216616.85,452350.16 216617.10,452352.59"/>
    </edge>
    <edge id=":2363191326_0" function="internal">
        <lane id=":2363191326_0_0" index="0" disallow="pedestrian tram rail_urban rail rail_electric rail_fast ship" speed="39.29" length="9.55" shape="216598.16,452190.41 216597.96,452187.61 216597.48,452185.74 216596.75,452183.91 216595.78,452181.24"/>
    </edge>
    <edge id=":2363191326_1" function="internal">
        <lane id=":2363191326_1_0" index="0" disallow="pedestrian tram rail_urban rail rail_electric rail_fast ship" speed="83.33" length="10.04" shape="216601.35,452190.37 216601.03,452187.45 216600.37,452185.51 216599.69,452183.56 216599.32,452180.65"/>
        <lane id=":2363191326_1_1" index="1" disallow="pedestrian tram rail_urban rail rail_electric rail_fast ship" speed="83.33" length="10.04" shape="216604.55,452190.34 216604.23,452187.41 216603.57,452185.45 216602.89,452183.50 216602.52,452180.57"/>
        <lane id=":2363191326_1_2" index="2" disallow="pedestrian tram rail_urban rail rail_electric rail_fast ship" speed="83.33" length="10.04" shape="216607.75,452190.30 216607.43,452187.36 216606.77,452185.39 216606.09,452183.43 216605.72,452180.49"/>
    </edge>
    <edge id=":2363220622_0" function="internal">
        <lane id=":2363220622_0_0" index="0" disallow="pedestrian tram rail_urban rail rail_electric rail_fast ship" speed="8.56" length="2.28" shape="216441.92,452246.57 216440.53,452247.51"/>
        <lane id=":2363220622_0_1" index="1" disallow="pedestrian tram rail_urban rail rail_electric rail_fast ship" speed="11.06" length="2.28" shape="216444.92,452247.70 216442.85,452249.71"/>
    </edge>