<?xml version="1.0" encoding="UTF-8"?>

<!-- generated on 2023-12-12 16:24:17.834643 by randomTrips.py v1_19_0+0269-52d024947d8
<configuration>
    <net-file value="/home/maksimovski/Desktop/artery/scenarios/artery-mcm/new_map.net.xml"/>
    <route-file value="randomroutes_p01.rou.xml"/>
    <end value="10.0"/>
    <period value="0.01"/>
</configuration>
-->

<!-- generated on 2023-12-12 16:24:17 by Eclipse SUMO duarouter Version 1.19.0
<configuration xmlns:xsi="http://www.w3.org/2001/XMLSchema-instance" xsi:noNamespaceSchemaLocation="http://sumo.dlr.de/xsd/duarouterConfiguration.xsd">

    <input>
        <net-file value="/home/maksimovski/Desktop/artery/scenarios/artery-mcm/new_map.net.xml"/>
        <route-files value="trips.trips.xml"/>
    </input>

    <output>
        <output-file value="randomroutes_p01.rou.xml"/>
        <alternatives-output value="NUL"/>
    </output>

    <time>
        <begin value="0.0"/>
        <end value="10.0"/>
    </time>

    <report>
        <no-warnings value="true"/>
        <ignore-errors value="true"/>
        <no-step-log value="true"/>
    </report>

</configuration>
-->

<routes xmlns:xsi="http://www.w3.org/2001/XMLSchema-instance" xsi:noNamespaceSchemaLocation="http://sumo.dlr.de/xsd/routes_file.xsd">
    <vehicle id="1" depart="0.01">
        <route edges="-39577540"/>
    </vehicle>
    <vehicle id="2" depart="0.02">
        <route edges="30320943 378466167 266507548 257907861 151167740 266507555 266507558 39704924 39704922 266507540 27392720"/>
    </vehicle>
    <vehicle id="5" depart="0.05">
        <route edges="-37192505#0 52918687#3 52918687#4 -35743389#1 -35743389#0 202070435#12 37192508#0 215826160#0 215826160#1 215826160#2"/>
    </vehicle>
    <vehicle id="8" depart="0.08">
        <route edges="-37192505#0 52918687#3 52918687#4 -35743389#1 -35743273 -202070435#8 -202070435#6.32 -202070435#6.65 -202070435#4 -202070435#1 10941820 201880159#0 201880159#1 201880159#2 201789796#0.31 201789796#1 30320943 378466167 266507548 32976755 327975020 327975024 327975024.20 327975024.51 327975019 146973189 195073416 195073418#0 195073418#1 266507539"/>
    </vehicle>
    <vehicle id="9" depart="0.09">
        <route edges="32976752 28091398 327975022 327975022.30 327975022.62 39704920 151167740 266507555 266507558 39704924 39704922 266507540 27392720 27392724 23622443 195073412#0 195073412#1 195073412#2 195073413 327975020 327975024 327975024.20 327975024.51 327975019 28132017 32976751 32976751.35 146973222 39577538 39577540 638602238 -138300617#4"/>
    </vehicle>
    <vehicle id="10" depart="0.10">
        <route edges="32976751.35 146973222 39577538 39577540 638602238 -138300617#4 -138300617#3 138300629 306793669 32976752 28091398 327975022 327975022.30 327975022.62 39704920 151167740 266507555 266507558 39704924 39704922 266507540 27392720 27392724 266507546 266507536 27550700"/>
    </vehicle>
    <vehicle id="12" depart="0.12">
        <route edges="441565711 -37681592#0 138300617#4 138300617#5 -157305703 157305700#0 157305700#1 157305700#2"/>
    </vehicle>
    <vehicle id="15" depart="0.15">
        <route edges="32976752 28091398 327975022 327975022.30 327975022.62 39704920 151167740 266507555 266507558 39704924 39704922 266507540 27392720 27392724 23622443 195073412#0 195073412#1 195073412#2 195073413 327975020 327975024 327975024.20 327975024.51 327975019 28132017 32976751 32976751.35 146973222 39577538 39577540 638602238 -138300617#4 -138300617#3 138300629 306793669"/>
    </vehicle>
    <vehicle id="16" depart="0.16">
        <route edges="215826160#1 215826160#2 -215826160#0 -37192508#0 -202070435#12 -202070435#11 -202070435#8 -202070435#6.32 -202070435#6.65 -202070435#4 -202070435#1 10941820 201880159#0 201880159#1 201880159#2 201789796#0.31 201789796#1 201789795 -26180725#2 28132852 39704923 266507553 48395120#0 48395120#1"/>
    </vehicle>
    <vehicle id="17" depart="0.17">
        <route edges="151167747.23 39704923 266507553 48395120#0 48395120#1 32976755 327975020 327975024 327975024.20 327975024.51 327975019 146973189 195073416 195073418#0 195073418#1 266507539 27392718 27392719 4058141 266507543 266507532"/>
    </vehicle>
    <vehicle id="20" depart="0.20">
        <route edges="27454740 27454730 266507538 266507539 27392718 27392719 4058141 266507543 266507532 327975022 327975022.30 327975022.62 39704920 151167740 266507555 266507554 -28132852 26180725#1 -36291830 30320943 23622426 -195073412#2 -195073412#1"/>
    </vehicle>
    <vehicle id="25" depart="0.25">
        <route edges="151167747 151167747.23 39704923 266507553 48395120#0 48395120#1 32976755 327975020 327975024 327975024.20 327975024.51 327975019 28132017 32976751 32976751.35 146973222 39577538 39577540 638602238 47067277 441565711 -37681592#0"/>
    </vehicle>
    <vehicle id="26" depart="0.26">
        <route edges="-37681592#2 -37681592#1 -37681592#0 -138300617#3 138300629 306793669 32976752 28091398 327975022 327975022.30 327975022.62 39704920 151167740 266507555 266507554 266507557#0 266507557#1 4058127#1"/>
    </vehicle>
    <vehicle id="27" depart="0.27">
        <route edges="266507553 48395120#0 48395120#1 32976755 327975020 327975024 327975024.20 327975024.51 327975019 146973189 195073416 195073418#0 195073418#1 266507539 27392718 27392719 4058141 266507543"/>
    </vehicle>
    <vehicle id="28" depart="0.28">
        <route edges="-26180725#2 28132852 39704923 266507553 48395120#0 48395120#1 32976755 327975020 327975024 327975024.20 327975024.51 327975019 28132017 32976751 32976751.35 146973222 39577538 39577540 638602238 -138300617#4 -138300617#3 138300629 306793669"/>
    </vehicle>
    <vehicle id="29" depart="0.29">
        <route edges="-25626559#2 -4058127#1 172368742 172368742.57 172368742.75"/>
    </vehicle>
    <vehicle id="30" depart="0.30">
        <route edges="542650138 266507547 201789795 -26180725#2 28132852 39704923 266507553 48395120#0 48395120#1 32976755 327975020 327975024 327975024.20 327975024.51 327975019 146973189 195073416 195073418#0 195073418#1 266507539 27392718 27392719 4058141 266507543 266507532 327975022 327975022.30 327975022.62 39704920 151167740 266507555 266507554"/>
    </vehicle>
    <vehicle id="32" depart="0.32">
        <route edges="37192505#0 37192505#1 -202070435#11 -202070435#8 -202070435#6.32 -202070435#6.65 -202070435#4 -202070435#1 10941820 201880159#0 201880159#1 201880159#2 201789796#0.31 201789796#1 30320943 378466167 266507548 32976755 327975020 327975024 327975024.20"/>
    </vehicle>
    <vehicle id="34" depart="0.34">
        <route edges="138300617#0 138300617#4 138300617#5"/>
    </vehicle>
    <vehicle id="35" depart="0.35">
        <route edges="-35743402 37192505#1 -202070435#11 -202070435#8 -202070435#6.32 -202070435#6.65 -202070435#4 -202070435#1 10941820 201880159#0 201880159#1 201880159#2 201789796#0.31 201789796#1 30320943 378466167 266507548 32976755 327975020 327975024 327975024.20 327975024.51 327975019 146973189 195073416 195073418#0 195073418#1 266507539 27392718 27392719 4058141"/>
    </vehicle>
    <vehicle id="37" depart="0.37">
        <route edges="266507555 266507558 39704924 39704922 266507540 27392720 27392724 23622443 195073412#0 195073412#1 195073412#2"/>
    </vehicle>
    <vehicle id="40" depart="0.40">
        <route edges="26180725#0 28132852 39704923 266507553 48395120#0 48395120#1 32976755 327975020 327975024 327975024.20 327975024.51 327975019 28132017 32976751 32976751.35 146973222 39577538 39577540 638602238 47067277 441565711 -37681592#0 138300617#4"/>
    </vehicle>
    <vehicle id="41" depart="0.41">
        <route edges="266507537 27454740 27454730 146973176#0 146973176#1 -195073416 195073423 32976751 32976751.35 146973222 39577538"/>
    </vehicle>
    <vehicle id="42" depart="0.42">
        <route edges="157305702#1 157305702#2 -157305700#2 -157305700#1 -157305700#0 -306793671 -39577538"/>
    </vehicle>
    <vehicle id="43" depart="0.43">
        <route edges="638602238 -138300617#4 -138300617#3 138300629 306793669 32976752 28091398 327975022 327975022.30 327975022.62 39704920 151167740 266507555 266507554 -28132852 26180725#1 -36291830 30320943 23622426"/>
    </vehicle>
    <vehicle id="45" depart="0.45">
        <route edges="-202070435#12 -202070435#11 -202070435#8 -202070435#6.32 -202070435#6.65 -202070435#4 -202070435#1 10941820 201880159#0 201880159#1 201880159#2 201789796#0.31 201789796#1 201789795 -26180725#2 28132852 39704923 266507553 39704918 542650138 266507547"/>
    </vehicle>
    <vehicle id="46" depart="0.46">
        <route edges="32930762 266507537 27454740 27454730 266507538 266507539 27392718 27392719 4058141 266507543 266507532 327975022 327975022.30 327975022.62 39704920 151167740 266507555 266507558 39704924 39704922 266507540 27392720 27392724 23622443 195073412#0 195073412#1 195073412#2 195073413 327975020 327975024 327975024.20 327975024.51 327975019 146973189 195073416 195073418#0 195073418#1"/>
    </vehicle>
    <vehicle id="48" depart="0.48">
        <route edges="638602238 -138300617#4 -138300617#3 138300629 306793669 32976752 28091398 327975022 327975022.30 327975022.62 39704919 28091397 542650138 266507547 -201789796#1 -201789796#0 -201880159#1 -201880159#0 25625974"/>
    </vehicle>
    <vehicle id="50" depart="0.50">
        <route edges="-149044751#0 201880159#2 201789796#0.31 201789796#1 201789795 -26180725#2 28132852"/>
    </vehicle>
    <vehicle id="51" depart="0.51">
        <route edges="27392719 4058141 266507543 266507532 327975022 327975022.30 327975022.62 39704920 151167740 266507555 266507554 -28132852 26180725#1 -36291830 30320943 378466167 266507548 257907861"/>
    </vehicle>
    <vehicle id="52" depart="0.52">
        <route edges="-37681592#2 -37681592#1 -37681592#0 -138300617#3 138300629 306793669 32976752 28091398 327975022 327975022.30 327975022.62 39704920 151167740 266507555 266507554"/>
    </vehicle>
    <vehicle id="53" depart="0.53">
        <route edges="-202070435#12 -202070435#11 -202070435#8 -202070435#6.32 -202070435#6.65 -202070435#4 -202070435#1 10941820 201880159#0 201880159#1 201880159#2 201789796#0.31"/>
    </vehicle>
    <vehicle id="54" depart="0.54">
        <route edges="195073418#0 195073418#1 266507539 27392718 27392719 4058141 266507543 266507532 327975022 327975022.30 327975022.62 39704920 151167740 266507555 266507558 39704924 39704922 266507540 27392720 27392724 23622443 195073412#0 195073412#1 195073412#2 195073413 327975020 327975024 327975024.20 327975024.51 327975019 28132017 32976751 32976751.35 146973222 39577538 39577540 638602238 47067277 441565711"/>
    </vehicle>
    <vehicle id="56" depart="0.56">
        <route edges="202070435#12 37192508#0 215826160#0 215826160#1 215826160#2 -215826160#0 -37192508#0 -202070435#12 35743389#0 35743389#1 -52918687#5 -35743402"/>
    </vehicle>
    <vehicle id="57" depart="0.57">
        <route edges="39704919 28091397 542650138 266507547 201789795 -26180725#2 28132852 39704923 266507553 48395120#0 48395120#1 32976755 327975020 327975024 327975024.20 327975024.51 327975019 28132017 32976751 32976751.35 146973222 39577538 39577540 638602238 -138300617#4 37681592#0 37681592#1"/>
    </vehicle>
    <vehicle id="58" depart="0.58">
        <route edges="-52918687#3 37192505#0 37192505#1 -202070435#11 -202070435#8 -202070435#6.32 -202070435#6.65 -202070435#4 -202070435#1 10941820 201880159#0 201880159#1 201880159#2 201789796#0.31 201789796#1 201789795 -26180725#2 28132852 39704923 266507553"/>
    </vehicle>
    <vehicle id="60" depart="0.60">
        <route edges="327975022 327975022.30 327975022.62 39704920 151167740 266507555 266507554 -28132852 26180725#1 -36291830 30320943 378466167 266507548 257907861"/>
    </vehicle>
    <vehicle id="61" depart="0.61">
        <route edges="327975024 327975024.20 327975024.51 327975019 146973189 195073416 195073418#0 195073418#1 266507539 27392718 27392719 4058141 266507543 266507532 327975022 327975022.30 327975022.62 39704919 28091397 542650138 266507547 -201789796#1 -201789796#0 -201880159#1 -201880159#0 25625974"/>
    </vehicle>
    <vehicle id="63" depart="0.63">
        <route edges="-157305700#0 157305703 638602238 -138300617#4 -138300617#3 138300629 306793669 32976752 28091398 327975022 327975022.30 327975022.62 39704919 28091397 542650138 266507547 201789795 -26180725#2 28132852 39704923"/>
    </vehicle>
    <vehicle id="69" depart="0.69">
        <route edges="327975022 327975022.30 327975022.62 39704920 151167740 266507555 266507554 -28132852 -26180725#0"/>
    </vehicle>
    <vehicle id="70" depart="0.70">
        <route edges="201789796#0.31 201789796#1 30320943 378466167 266507548 257907861 151167740 266507555 266507554 -28132852 26180725#1"/>
    </vehicle>
    <vehicle id="71" depart="0.71">
        <route edges="-37681592#2 -37681592#1 -37681592#0 138300617#4 47067277 441565711 37681592#1"/>
    </vehicle>
    <vehicle id="73" depart="0.73">
        <route edges="215826160#2 -215826160#0 -37192508#0 -202070435#12 -202070435#11 -202070435#8 -202070435#6.32 -202070435#6.65 -202070435#4 -202070435#1 10941820 201880159#0 201880159#1 201880159#2 201789796#0.31 201789796#1 30320943 378466167 266507548 32976755 327975020 327975024 327975024.20 327975024.51 327975019 28132017 32976751 32976751.35 146973222 39577538 39577540 638602238 -138300617#4 -138300617#3 138300629 306793669"/>
    </vehicle>
    <vehicle id="74" depart="0.74">
        <route edges="-35743389#1 -35743273 -202070435#8 -202070435#6.32 -202070435#6.65 -202070435#4 -202070435#1 10941820 201880159#0 201880159#1 201880159#2 201789796#0.31 149045266"/>
    </vehicle>
    <vehicle id="75" depart="0.75">
        <route edges="638602238 -138300617#4 -138300617#3 138300629 306793669 32976752 28091398 327975022 327975022.30 327975022.62 39704920 151167740 266507555 266507554 266507557#0"/>
    </vehicle>
    <vehicle id="76" depart="0.76">
        <route edges="195073413 327975020 327975024 327975024.20 327975024.51 327975019 146973189 195073416 195073418#0 195073418#1 266507539 27392718 27392719 4058141 266507543 266507532 327975022 327975022.30 327975022.62 39704919 28091397 542650138 266507547 -201789796#1 -201789796#0 -201880159#1 25596851#0"/>
    </vehicle>
    <vehicle id="78" depart="0.78">
        <route edges="146973153 39530041 266507542 39704923 266507553 48395120#0 48395120#1 32976755 327975020 327975024 327975024.20 327975024.51 327975019 146973189 195073416 195073418#0 195073418#1 266507539"/>
    </vehicle>
    <vehicle id="79" depart="0.79">
        <route edges="-37192506#0 -35743389#1 -35743273 -202070435#8 -202070435#6.32 -202070435#6.65 -202070435#4 -202070435#1 10941820 201880159#0 201880159#1 201880159#2 201789796#0.31 201789796#1 30320943 378466167 266507548 32976755 327975020 327975024 327975024.20 327975024.51 327975019 28132017 32976751 32976751.35 146973222 39577538 39577540 638602238 47067277 441565711 -37681592#0 138300617#4 138300617#5 -39577540"/>
    </vehicle>
    <vehicle id="81" depart="0.81">
        <route edges="-37192506#0 -35743389#1 -35743273 -202070435#8 -202070435#6.32 -202070435#6.65 -202070435#4 -202070435#1 10941820 201880159#0 201880159#1 201880159#2 201789796#0.31 201789796#1 30320943 378466167 266507548 32976755 327975020 327975024 327975024.20 327975024.51 327975019 28132017 32976751 32976751.35 146973222 39577538 39577540"/>
    </vehicle>
    <vehicle id="82" depart="0.82">
        <route edges="37681592#0 -441565711 -47067277 -138300617#4 -138300617#3 138300629 306793669 32976752 28091398 327975022 327975022.30 327975022.62 39704919 28091397 542650138 266507547 -201789796#1 -201789796#0 -201880159#1 -201880159#0"/>
    </vehicle>
    <vehicle id="83" depart="0.83">
        <route edges="-37192508#0 -202070435#12 -202070435#11 -202070435#8 -202070435#6.32 -202070435#6.65 -202070435#4 -202070435#1 10941820 201880159#0 201880159#1 201880159#2 201789796#0.31 201789796#1 30320943 378466167 266507548 32976755 327975020 327975024 327975024.20 327975024.51 327975019 146973189 195073416 195073418#0 195073418#1 266507539 27392718 27392719"/>
    </vehicle>
    <vehicle id="84" depart="0.84">
        <route edges="-36291830 30320943 378466167 266507548 32976755 327975020 327975024 327975024.20 327975024.51 327975019 146973189 195073416 195073418#0 195073418#1 266507539 27392718 27392719 4058141 266507543 266507532 327975022 327975022.30 327975022.62 39704919 28091397 542650138 266507547 201789795 -26180725#2"/>
    </vehicle>
    <vehicle id="86" depart="0.86">
        <route edges="201789796#0.31 201789796#1 30320943 378466167 266507548 32976755 327975020 327975024 327975024.20 327975024.51"/>
    </vehicle>
    <vehicle id="90" depart="0.90">
        <route edges="28132852 549032836 39704924 39704922 266507540 27392720"/>
    </vehicle>
    <vehicle id="91" depart="0.91">
        <route edges="52918687#4 -35743389#1 -35743273 -202070435#8 -202070435#6.32"/>
    </vehicle>
    <vehicle id="92" depart="0.92">
        <route edges="157305702#1 157305702#2 -157305700#2 -157305700#1 -157305700#0 157305703 638602238 47067277 441565711 -37681592#0 138300617#4 138300617#5 -157305703 157305700#0 157305700#1 157305700#2"/>
    </vehicle>
    <vehicle id="94" depart="0.94">
        <route edges="-35743273 -202070435#8 -202070435#6.32 -202070435#6.65 -202070435#4 -202070435#1 10941820 201880159#0"/>
    </vehicle>
    <vehicle id="96" depart="0.96">
        <route edges="-37193858#1 157305702#1 157305702#2 -157305700#2 -157305700#1 -157305700#0 157305703 638602238 -138300617#4 -138300617#3 138300629 306793669 32976752 28091398 327975022 327975022.30 327975022.62 39704920 151167740 266507555 266507558 39704924 39704922"/>
    </vehicle>
    <vehicle id="98" depart="0.98">
        <route edges="23622443 195073412#0 195073412#1 195073412#2 195073413 327975020 327975024 327975024.20 327975024.51 327975019 146973189 195073416 195073418#0 195073418#1 266507539 27392718 27392719 4058141 266507543 266507532 327975022 327975022.30 327975022.62 39704920 151167740 266507555 266507554 -28132852 26180725#1 -36291830 30320943 23622426 -195073412#2"/>
    </vehicle>
    <vehicle id="100" depart="1.00">
        <route edges="48395120#0 48395120#1 32976755 327975020 327975024 327975024.20 327975024.51 327975019 146973189 195073416 195073418#0 195073418#1 266507539 27392718 27392719 4058141 266507543 266507532 327975022 327975022.30 327975022.62 39704920 151167740 266507555 266507558 39704924 39704922"/>
    </vehicle>
    <vehicle id="101" depart="1.01">
        <route edges="37192505#1 35743389#0 35743389#1 -52918687#5 -35743402 -37192505#0 52918687#3 52918687#4 -35743389#1"/>
    </vehicle>
    <vehicle id="103" depart="1.03">
        <route edges="157305702#1 157305702#2 -157305700#2 -157305700#1 -157305700#0 157305703 638602238 -138300617#4 -138300617#3 138300629 306793669 32976752 28091398 327975022 327975022.30 327975022.62 39704919 28091397 542650138 266507547 -201789796#1 -201789796#0"/>
    </vehicle>
    <vehicle id="105" depart="1.05">
        <route edges="-37681592#2 -37681592#1 -37681592#0 -138300617#3 138300629 306793669 32976752 28091398 327975022 327975022.30 327975022.62 39704920 151167740 266507555 266507558 39704924 39704922 266507540 27392720 27392724 23622443 195073412#0 195073412#1 195073412#2 195073413 327975020 327975024 327975024.20 327975024.51"/>
    </vehicle>
    <vehicle id="106" depart="1.06">
        <route edges="195073418#0 195073418#1"/>
    </vehicle>
    <vehicle id="107" depart="1.07">
        <route edges="441565711 -37681592#0 138300617#4 138300617#5 638602238"/>
    </vehicle>
    <vehicle id="108" depart="1.08">
        <route edges="257907861 151167740 266507555 266507558 39704924 39704922 266507540 27392720 27392724 23622443 195073412#0 195073412#1 195073412#2 195073413 327975020 327975024 327975024.20 327975024.51 327975019 146973189 195073416 195073418#0 195073418#1 266507539 27392718 27392719 4058141 266507543 266507532 327975022 327975022.30 327975022.62 39704919 28091397 542650138 266507547 201789795 -26180725#2 28132852"/>
    </vehicle>
    <vehicle id="109" depart="1.09">
        <route edges="-25596851#0 201880159#1 201880159#2 201789796#0.31 201789796#1 30320943 378466167 266507548 32976755 327975020 327975024 327975024.20 327975024.51 327975019 146973189"/>
    </vehicle>
    <vehicle id="111" depart="1.11">
        <route edges="215826160#2 -215826160#0 -37192508#0 -202070435#12 -202070435#11 -202070435#8 -202070435#6.32 -202070435#6.65 -202070435#4 -202070435#1 10941820 201880159#0 201880159#1 201880159#2 201789796#0.31 201789796#1 30320943 378466167 266507548 32976755 327975020 327975024 327975024.20 327975024.51 327975019"/>
    </vehicle>
    <vehicle id="113" depart="1.13">
        <route edges="202070435#12 37192508#0"/>
    </vehicle>
    <vehicle id="114" depart="1.14">
        <route edges="-25623125#1 -4058127#1 151167747 151167747.23 39704923 266507553 48395120#0 48395120#1 32976755 327975020 327975024 327975024.20 327975024.51 327975019 28132017 32976751 32976751.35 146973222 39577538 39577540 638602238 47067277"/>
    </vehicle>
    <vehicle id="116" depart="1.16">
        <route edges="266507539 27392718 27392719 4058141 266507543 266507532 327975022 327975022.30 327975022.62 39704920 151167740 266507555 266507558 39704924 39704922 266507540 27392720"/>
    </vehicle>
    <vehicle id="117" depart="1.17">
        <route edges="-37192507#0 -35743389#3 -35743389#1 -35743389#0 202070435#12 37192508#0 215826160#0 -215826160#2 -215826160#1"/>
    </vehicle>
    <vehicle id="121" depart="1.21">
        <route edges="202070435#5.70 202070435#9 35743389#0 -35743273 -202070435#8 -202070435#6.32 -202070435#6.65 -202070435#4 -202070435#1 10941820 201880159#0 201880159#1 201880159#2 201789796#0.31 201789796#1 30320943 378466167 266507548 257907861 151167740 266507555 266507558 39704924"/>
    </vehicle>
    <vehicle id="122" depart="1.22">
        <route edges="-35743389#3 -35743389#1 -35743273 -202070435#8 -202070435#6.32 -202070435#6.65 -202070435#4 -202070435#1 10941820 201880159#0 201880159#1 201880159#2 201789796#0.31 201789796#1 30320943 378466167 266507548 32976755 327975020 327975024 327975024.20 327975024.51 327975019 28132017"/>
    </vehicle>
    <vehicle id="123" depart="1.23">
        <route edges="-37192508#0 -202070435#12 -202070435#11 -202070435#8 -202070435#6.32 -202070435#6.65 -202070435#4 -202070435#1 10941820 201880159#0 201880159#1 201880159#2 201789796#0.31 201789796#1 30320943 378466167 266507548 257907861 151167740 266507555 266507558 39704924 39704922 266507540 27392720 27392724 23622443 195073412#0 195073412#1 195073412#2"/>
    </vehicle>
    <vehicle id="124" depart="1.24">
        <route edges="266507558 39704924 39704922 266507540 27392720 27392724 23622443 195073412#0 195073412#1 195073412#2 195073413 327975020 327975024 327975024.20 327975024.51 327975019 28132017 32976751 32976751.35 146973222"/>
    </vehicle>
    <vehicle id="125" depart="1.25">
        <route edges="138300617#4 138300617#5 638602238 -138300617#4 -138300617#3 138300629 306793669 32976752 28091398 327975022 327975022.30 327975022.62 39704920 151167740 266507555 266507558 39704924 39704922 266507540 27392720 27392724 23622443 195073412#0 195073412#1 195073412#2 195073413 327975020"/>
    </vehicle>
    <vehicle id="127" depart="1.27">
        <route edges="638602238"/>
    </vehicle>
    <vehicle id="129" depart="1.29">
        <route edges="-37681592#2 -37681592#1 -37681592#0 -138300617#3 138300629 306793669 32976752 28091398 327975022 327975022.30 327975022.62 39704920 151167740 266507555 266507558 39704924"/>
    </vehicle>
    <vehicle id="130" depart="1.30">
        <route edges="39530041 266507542 -28132852 26180725#1 -36291830 30320943 378466167"/>
    </vehicle>
    <vehicle id="133" depart="1.33">
        <route edges="266507543 266507532 327975022 327975022.30 327975022.62 39704919 28091397 542650138"/>
    </vehicle>
    <vehicle id="134" depart="1.34">
        <route edges="266507554 -28132852 26180725#1 -36291830 30320943 378466167 266507548 32976755 327975020 327975024 327975024.20 327975024.51 327975019 28132017 32976751 32976751.35 146973222 39577538 39577540 638602238 -138300617#4"/>
    </vehicle>
    <vehicle id="135" depart="1.35">
        <route edges="35743273 -35743389#0 -202070435#11 -202070435#8 -202070435#6.32 -202070435#6.65 -202070435#4 -202070435#1 10941820 201880159#0 201880159#1 201880159#2 201789796#0.31 201789796#1 30320943 378466167 266507548 32976755 327975020 327975024 327975024.20 327975024.51 327975019 28132017 32976751 32976751.35 146973222"/>
    </vehicle>
    <vehicle id="136" depart="1.36">
        <route edges="266507557#0 266507557#1 4058127#1"/>
    </vehicle>
    <vehicle id="138" depart="1.38">
        <route edges="-202070435#12 -202070435#11 -202070435#8 -202070435#6.32 -202070435#6.65 -202070435#4 -202070435#1 10941820 201880159#0 201880159#1 201880159#2 201789796#0.31 201789796#1 30320943 378466167 266507548 32976755 327975020 327975024 327975024.20 327975024.51 327975019 146973189 195073416 195073418#0 195073418#1 266507539 27392718 27392719 4058141 266507543 266507532"/>
    </vehicle>
    <vehicle id="141" depart="1.41">
        <route edges="266507547 201789795 -26180725#2 28132852 39704923 266507553 48395120#0 48395120#1 32976755 327975020 327975024 327975024.20 327975024.51 327975019 28132017 32976751 32976751.35 146973222 39577538 39577540 638602238 47067277 441565711 -37681592#0 138300617#4 138300617#5"/>
    </vehicle>
    <vehicle id="142" depart="1.42">
        <route edges="201880159#1 201880159#2 201789796#0.31 201789796#1 30320943 378466167 266507548 32976755 327975020 327975024 327975024.20 327975024.51 327975019 28132017 32976751 32976751.35 146973222 39577538 39577540"/>
    </vehicle>
    <vehicle id="143" depart="1.43">
        <route edges="37192505#1 202070435#12 37192508#0 215826160#0 215826160#1 215826160#2 -215826160#0 -37192508#0 -202070435#12"/>
    </vehicle>
    <vehicle id="145" depart="1.45">
        <route edges="-138300617#3 138300629 306793669 32976752 28091398 327975022 327975022.30 327975022.62 39704920 151167740 266507555 266507558 39704924 39704922 266507540 27392720 27392724 23622443 195073412#0 195073412#1 195073412#2 195073413 327975020 327975024"/>
    </vehicle>
    <vehicle id="146" depart="1.46">
        <route edges="266507548 32976755 327975020 327975024 327975024.20 327975024.51 327975019 28132017 32976751 32976751.35 146973222 39577538 39577540 638602238 47067277 441565711 -37681592#0 138300617#4"/>
    </vehicle>
    <vehicle id="147" depart="1.47">
        <route edges="306793669 32976752 28091398 327975022 327975022.30 327975022.62 39704920 151167740 266507555 266507558 39704924 39704922 266507540 27392720 27392724 23622443 195073412#0 195073412#1 195073412#2 195073413 327975020 327975024 327975024.20 327975024.51 327975019 146973189 195073416 195073418#0 195073418#1 266507539 27392718 27392719 4058141 266507543 266507532"/>
    </vehicle>
    <vehicle id="148" depart="1.48">
        <route edges="195073412#1 195073412#2 195073413 327975020 327975024 327975024.20 327975024.51 327975019 28132017 32976751 32976751.35 146973222 39577538 39577540 638602238 -138300617#4"/>
    </vehicle>
    <vehicle id="152" depart="1.52">
        <route edges="-215826160#2 -215826160#1 -215826160#0 -37192508#0 -202070435#12 -202070435#11 -202070435#8 -202070435#6.32 -202070435#6.65 -202070435#4 -202070435#1 10941820 201880159#0 201880159#1 201880159#2 201789796#0.31 201789796#1 30320943 378466167 266507548 257907861 151167740 266507555 266507554 -28132852 -26180725#0"/>
    </vehicle>
    <vehicle id="153" depart="1.53">
        <route edges="10941820 201880159#0 201880159#1 201880159#2 201789796#0.31 201789796#1 30320943 378466167 266507548 32976755 327975020 327975024 327975024.20 327975024.51 327975019 28132017 32976751 32976751.35 146973222 39577538"/>
    </vehicle>
    <vehicle id="158" depart="1.58">
        <route edges="157305702#2 -157305700#2 -157305700#1 -157305700#0 157305703 638602238 -138300617#4 -138300617#3 138300629 306793669 32976752 28091398 327975022 327975022.30 327975022.62 39704920 151167740 266507555 266507558 39704924 39704922 266507540 27392720 27392724 266507546"/>
    </vehicle>
    <vehicle id="159" depart="1.59">
        <route edges="-25596851#0 201880159#1 201880159#2 201789796#0.31 201789796#1 201789795 -26180725#2 28132852 39704923"/>
    </vehicle>
    <vehicle id="161" depart="1.61">
        <route edges="32976755 327975020 327975024 327975024.20 327975024.51 327975019 146973189 195073416 195073418#0 195073418#1 266507539 27392718 27392719 4058141 266507543 266507532 327975022 327975022.30 327975022.62 39704920 151167740 266507555 266507554 -28132852 26180725#1 -36291830 30320943 378466167"/>
    </vehicle>
    <vehicle id="162" depart="1.62">
        <route edges="-157305700#1 -157305700#0 157305703 638602238 -138300617#4 -138300617#3 138300629 306793669 32976752 28091398 327975022 327975022.30 327975022.62 39704920 151167740 266507555 266507558 39704924 39704922 266507540 27392720 27392724 23622443 195073412#0 195073412#1 195073412#2 195073413 327975020 327975024 327975024.20 327975024.51 327975019 28132017 32976751 32976751.35 306793670#0"/>
    </vehicle>
    <vehicle id="163" depart="1.63">
        <route edges="138300629 306793669 32976752 28091398 327975022 327975022.30 327975022.62 39704919 28091397 542650138 266507547 201789795 -26180725#2 28132852 39704923"/>
    </vehicle>
    <vehicle id="164" depart="1.64">
        <route edges="32976751.35 146973222 39577538 39577540 638602238 -138300617#4 37681592#0"/>
    </vehicle>
    <vehicle id="165" depart="1.65">
        <route edges="32976755 327975020 327975024 327975024.20 327975024.51 327975019 28132017 32976751 32976751.35 146973222 39577538 39577540 638602238 47067277 441565711 -37681592#0 138300617#4 138300617#5"/>
    </vehicle>
    <vehicle id="168" depart="1.68">